Circuit: * D:\2ÊÓÐÑ\êóðñà÷\llll.asc

V1: both pins shorted together -- ignoring.
Direct Newton iteration failed to find .op point.  (Use ".option noopiter" to skip.)
Starting Gmin stepping
Gmin = 10
Gmin = 1.07374
Gmin = 0.115292
Gmin = 0.0123794
Gmin = 0.00132923
Gmin = 0.000142725
vernier = 0.5
vernier = 0.25
vernier = 0.125
Gmin = 3.74144e-005
vernier = 0.0625
vernier = 0.03125
vernier = 0.015625
vernier = 0.0078125
vernier = 0.00390625
vernier = 0.00195313
vernier = 0.000976563
vernier = 0.000488281
Gmin = 0
Gmin stepping failed

Starting source stepping with srcstepmethod=0
Source Step = 3.0303%
Source Step = 33.3333%
Source Step = 63.6364%
Source Step = 72.7332%
Starting source stepping with srcstepmethod=1
Source Step = 3.0303%
Source Step = 33.3333%
Source Step = 52.4621%
Source stepping failed

Pseudo Transient succeeded in finding the operating point.
Ignoring empty pin current: Ix(u1:vcc)
Ignoring empty pin current: Ix(u1:vcc)
Changing Tseed to 9.76562e-008
Changing Tseed to 9.76562e-010

Date: Sat May 19 21:01:48 2018
Total elapsed time: 0.456 seconds.

tnom = 27
temp = 27
method = modified trap
totiter = 78867
traniter = 9991
tranpoints = 2865
accept = 2411
rejected = 2145
matrix size = 12
fillins = 3
solver = Normal
Matrix Compiler1: 588 bytes object code size  0.3/0.1/[0.1]
Matrix Compiler2: 780 bytes object code size  0.2/0.4/[0.2]


